dynaflow/src/test/resources/SecurityAnalysis/input.xiidm
<?xml version="1.0" encoding="UTF-8"?>
<iidm:network xmlns:iidm="http://www.powsybl.org/schema/iidm/1_4" id="sim1" caseDate="2023-03-23T16:40:48.060+01:00" forecastDistance="0" sourceFormat="test">
    <iidm:substation id="P1" country="FR" tso="RTE" geographicalTags="A">
        <iidm:voltageLevel id="VLGEN" nominalV="24.0" topologyKind="BUS_BREAKER">
            <iidm:busBreakerTopology>
                <iidm:bus id="VLGEN_0"/>
            </iidm:busBreakerTopology>
            <iidm:generator id="GEN" energySource="OTHER" minP="-9999.99" maxP="9999.99" voltageRegulatorOn="true" targetP="607.0" targetV="24.5" targetQ="301.0" bus="VLGEN_0" connectableBus="VLGEN_0">
                <iidm:minMaxReactiveLimits minQ="-9999.99" maxQ="9999.99"/>
            </iidm:generator>
        </iidm:voltageLevel>
        <iidm:voltageLevel id="VLHV1" nominalV="380.0" topologyKind="BUS_BREAKER">
            <iidm:busBreakerTopology>
                <iidm:bus id="VLHV1_0" v="380.0"/>
            </iidm:busBreakerTopology>
        </iidm:voltageLevel>
        <iidm:twoWindingsTransformer id="NGEN_NHV1" r="0.26658461538461536" x="11.104492831516762" g="0.0" b="0.0" ratedU1="24.0" ratedU2="400.0" voltageLevelId1="VLGEN" bus1="VLGEN_0" connectableBus1="VLGEN_0" voltageLevelId2="VLHV1" bus2="VLHV1_0" connectableBus2="VLHV1_0"/>
    </iidm:substation>
    <iidm:substation id="P2" country="FR" tso="RTE" geographicalTags="B">
        <iidm:voltageLevel id="VLHV2" nominalV="380.0" topologyKind="BUS_BREAKER">
            <iidm:busBreakerTopology>
                <iidm:bus id="VLHV2_0" v="380.0"/>
            </iidm:busBreakerTopology>
        </iidm:voltageLevel>
        <iidm:voltageLevel id="VLLOAD" nominalV="150.0" topologyKind="BUS_BREAKER">
            <iidm:busBreakerTopology>
                <iidm:bus id="VLLOAD_0"/>
            </iidm:busBreakerTopology>
            <iidm:load id="LOAD" loadType="UNDEFINED" p0="600.0" q0="200.0" bus="VLLOAD_0" connectableBus="VLLOAD_0"/>
        </iidm:voltageLevel>
        <iidm:twoWindingsTransformer id="NHV2_NLOAD" r="0.04724999999999999" x="4.049724365620455" g="0.0" b="0.0" ratedU1="400.0" ratedU2="158.0" voltageLevelId1="VLHV2" bus1="VLHV2_0" connectableBus1="VLHV2_0" voltageLevelId2="VLLOAD" bus2="VLLOAD_0" connectableBus2="VLLOAD_0">
            <iidm:ratioTapChanger regulating="true" lowTapPosition="0" tapPosition="1" targetDeadband="0.0" loadTapChangingCapabilities="true" targetV="158.0">
                <iidm:terminalRef id="NHV2_NLOAD" side="TWO"/>
                <iidm:step r="0.0" x="0.0" g="0.0" b="0.0" rho="0.8505666905244191"/>
                <iidm:step r="0.0" x="0.0" g="0.0" b="0.0" rho="1.0006666666666666"/>
                <iidm:step r="0.0" x="0.0" g="0.0" b="0.0" rho="1.150766642808914"/>
            </iidm:ratioTapChanger>
        </iidm:twoWindingsTransformer>
    </iidm:substation>
    <iidm:substation id="NB_S">
        <iidm:voltageLevel id="NB_VL" nominalV="400.0" lowVoltageLimit="395.0" highVoltageLimit="405.0" topologyKind="BUS_BREAKER">
            <iidm:busBreakerTopology>
                <iidm:bus id="NB_VL_0"/>
            </iidm:busBreakerTopology>
            <iidm:generator id="NB_GEN" energySource="OTHER" minP="0.0" maxP="11.0" voltageRegulatorOn="true" targetP="8.0" targetV="390.0" bus="NB_VL_0" connectableBus="NB_VL_0">
                <iidm:minMaxReactiveLimits minQ="-1.7976931348623157E308" maxQ="1.7976931348623157E308"/>
            </iidm:generator>
        </iidm:voltageLevel>
    </iidm:substation>
    <iidm:line id="NHV1_NHV2_1" r="3.0" x="33.0" g1="0.0" b1="1.93E-4" g2="0.0" b2="1.93E-4" voltageLevelId1="VLHV1" bus1="VLHV1_0" connectableBus1="VLHV1_0" voltageLevelId2="VLHV2" bus2="VLHV2_0" connectableBus2="VLHV2_0" p1="560.0" q1="550.0" p2="560.0" q2="550.0">
        <iidm:currentLimits1 permanentLimit="40.0"/>
        <iidm:currentLimits2 permanentLimit="1000.0">
            <iidm:temporaryLimit name="10'" acceptableDuration="600" value="1200.0"/>
        </iidm:currentLimits2>
    </iidm:line>
    <iidm:line id="NHV1_NHV2_2" r="3.0" x="33.0" g1="0.0" b1="1.93E-4" g2="0.0" b2="1.93E-4" voltageLevelId1="VLHV1" bus1="VLHV1_0" connectableBus1="VLHV1_0" voltageLevelId2="VLHV2" bus2="VLHV2_0" connectableBus2="VLHV2_0"/>
    <iidm:line id="NB_NGEN" r="3.0" x="33.0" g1="0.0" b1="1.93E-4" g2="0.0" b2="1.93E-4" voltageLevelId1="NB_VL" bus1="NB_VL_0" connectableBus1="NB_VL_0" voltageLevelId2="VLGEN" bus2="VLGEN_0" connectableBus2="VLGEN_0">
        <iidm:currentLimits1 permanentLimit="41.0"/>
    </iidm:line>
</iidm:network>
